_audit_creation_date      'Dec. 3, 2023'
_audit_creation_method    'Draft CIF file generated with Atomsk'
 
_chemical_name_common             ?
_chemical_melting_point           ?
_chemical_formula_iupac           'O96 C264 H180 Zr18'
_chemical_formula_moiety          'O96 C264 H180 Zr18'
_chemical_formula_sum             'O96 C264 H180 Zr18'
_chemical_formula_weight          6530.280
_chemical_compound_source         ?
_chemical_absolute_configuration  ?
_exptl_crystal_description        'EDIT-ENTRY'
_diffrn_measurement_device_type   'EDIT-ENTRY'
 
_space_group_IT_number            1
_space_group_crystal_system       monoclinic
_symmetry_space_group_name_Hall   'P 1'
_symmetry_space_group_name_H-M    'P 1'
 
loop_
_space_group_symop_operation_xyz
'+x,+y,+z'
 
_cell_length_a                    39.3875
_cell_length_b                    39.3875
_cell_length_c                    16.4829
_cell_angle_alpha                 90.0000
_cell_angle_beta                  90.0000
_cell_angle_gamma                 120.0000
_cell_volume                      19178.3712
 
loop_
 _atom_site_label
 _atom_site_type_symbol
 _atom_site_fract_x
 _atom_site_fract_y
 _atom_site_fract_z
 _atom_site_charge
O1  O  0.463167  0.404270  0.355363   -0.619112
O2  O  0.516841  0.411455  0.422073   -0.621160
O3  O  0.589856  0.058512  0.342009   -0.619312
O4  O  0.585052  0.105038  0.414431   -0.621128
O5  O  0.941448  0.536280  0.356368   -0.615881
O6  O  0.894638  0.481427  0.419296   -0.624196
O7  O  0.534059  0.590700  0.340392   -0.660315
O8  O  0.481325  0.584120  0.410928   -0.608124
O9  O  0.404349  0.943080  0.351737   -0.660650
O10  O  0.410967  0.896893  0.421892   -0.607329
O11  O  0.057570  0.466775  0.342341   -0.656240
O12  O  0.103869  0.517119  0.417761   -0.608589
O13  O  0.409345  0.466062  0.659220   -0.659909
O14  O  0.415889  0.518761  0.588603   -0.608084
O15  O  0.058264  0.591259  0.655018   -0.646506
O16  O  0.104337  0.585682  0.582104   -0.617534
O17  O  0.538782  0.943142  0.648111   -0.660117
O18  O  0.486015  0.896952  0.577858   -0.607838
O19  O  0.595864  0.537136  0.644798   -0.620659
O20  O  0.588767  0.483522  0.577999   -0.622199
O21  O  0.943178  0.406603  0.651464   -0.625645
O22  O  0.896234  0.411691  0.581359   -0.616948
O23  O  0.468663  0.058556  0.658005   -0.619586
O24  O  0.519890  0.105086  0.585384   -0.622266
O25  O  0.533948  0.591413  0.655177   -0.655552
O26  O  0.483074  0.586855  0.580976   -0.610106
O27  O  0.405794  0.942173  0.648549   -0.655290
O28  O  0.414061  0.895901  0.583251   -0.610004
O29  O  0.055559  0.464760  0.659128   -0.666271
O30  O  0.102165  0.516926  0.587923   -0.601228
O31  O  0.464053  0.405663  0.645543   -0.615995
O32  O  0.518556  0.413301  0.581674   -0.623018
O33  O  0.590763  0.058061  0.654403   -0.615762
O34  O  0.586697  0.104893  0.581591   -0.623128
O35  O  0.939615  0.536215  0.639920   -0.608480
O36  O  0.893376  0.480398  0.578942   -0.628421
O37  O  0.594624  0.536056  0.353965   -0.615543
O38  O  0.587017  0.481667  0.418263   -0.623177
O39  O  0.941417  0.404688  0.353556   -0.617955
O40  O  0.894878  0.411297  0.421571   -0.620499
O41  O  0.467119  0.058019  0.345493   -0.615567
O42  O  0.518050  0.104843  0.418231   -0.623881
O43  O  0.408832  0.466040  0.344583   -0.656137
O44  O  0.413272  0.516915  0.418608   -0.609239
O45  O  0.056568  0.591347  0.342838   -0.659286
O46  O  0.102757  0.584256  0.411906   -0.610323
O47  O  0.536360  0.942235  0.351098   -0.654439
O48  O  0.481868  0.895944  0.416493   -0.609562
O49  O  0.466158  0.466904  0.260566   -0.821437
O50  O  0.399355  0.400105  0.425903   -0.930396
O51  O  0.530338  0.998571  0.260205   -0.935206
O52  O  0.599693  0.999129  0.419235   -0.820496
O53  O  0.998364  0.530469  0.263069   -0.921232
O54  O  0.999680  0.601318  0.424602   -0.808250
O55  O  0.531457  0.529623  0.261320   -0.926675
O56  O  0.601587  0.601652  0.419348   -0.804771
O57  O  0.466122  0.999890  0.257295   -0.804931
O58  O  0.400558  0.001147  0.427973   -0.923188
O59  O  0.000846  0.468237  0.259549   -0.827281
O60  O  0.001203  0.400199  0.420565   -0.925966
O61  O  0.470404  0.468697  0.738411   -0.927165
O62  O  0.398465  0.398525  0.580266   -0.805588
O63  O  0.998066  0.533684  0.735441   -0.917494
O64  O  0.001227  0.600689  0.578620   -0.922269
O65  O  0.533754  0.999996  0.742749   -0.804015
O66  O  0.600608  0.001288  0.572011   -0.923172
O67  O  0.533069  0.534062  0.739169   -0.820992
O68  O  0.599936  0.600862  0.573675   -0.930772
O69  O  0.001223  0.472201  0.742021   -0.833684
O70  O  0.998457  0.397378  0.574377   -0.813535
O71  O  0.468055  0.998508  0.739696   -0.935561
O72  O  0.399376  0.999094  0.580648   -0.820728
O73  O  0.519734  0.478101  0.375430   -1.035391
O74  O  0.514465  0.031140  0.408994   -1.143649
O75  O  0.958469  0.478188  0.375735   -1.034601
O76  O  0.484238  0.513597  0.409202   -1.165649
O77  O  0.478118  0.959636  0.378296   -1.070001
O78  O  0.029474  0.513664  0.409399   -1.165040
O79  O  0.486515  0.515954  0.590544   -1.165049
O80  O  0.029463  0.515037  0.590617   -1.162029
O81  O  0.481478  0.959626  0.621641   -1.070185
O82  O  0.522057  0.480534  0.624393   -1.035813
O83  O  0.958501  0.479594  0.624496   -1.033965
O84  O  0.516599  0.031130  0.590875   -1.143351
O85  O  0.429330  0.469205  0.503541   -1.072419
O86  O  0.522855  0.970476  0.497053   -1.164615
O87  O  0.039938  0.570376  0.498335   -1.071550
O88  O  0.553401  0.522176  0.497630   -1.143804
O89  O  0.468539  0.041048  0.503037   -1.039588
O90  O  0.968890  0.445816  0.501118   -1.136995
O91  O  0.478078  0.446832  0.502168   -1.144180
O92  O  0.968826  0.521150  0.499177   -1.148633
O93  O  0.572437  0.041055  0.496881   -1.038461
O94  O  0.530903  0.570818  0.496166   -1.071404
O95  O  0.039951  0.468681  0.501634   -1.072873
O96  O  0.447598  0.970467  0.502855   -1.164478
C1  C  0.489283  0.394989  0.370025    0.636022
C2  C  0.488320  0.363235  0.320602   -0.050848
C3  C  0.459047  0.344439  0.261876   -0.080376
C4  C  0.459310  0.316053  0.212579   -0.139468
C5  C  0.488709  0.306101  0.221800    0.086617
C6  C  0.517612  0.324741  0.281656   -0.139903
C7  C  0.517558  0.353287  0.330747   -0.081041
C8  C  0.488835  0.275224  0.172271    0.024564
C9  C  0.487934  0.275536  0.086501    0.029659
C10  C  0.490289  0.307728  0.041748   -0.132971
C11  C  0.600227  0.093926  0.359468    0.636160
C12  C  0.632881  0.124832  0.312168   -0.048068
C13  C  0.652220  0.114331  0.254816   -0.082427
C14  C  0.682322  0.143188  0.209023   -0.138641
C15  C  0.693170  0.182698  0.219900    0.086662
C16  C  0.674127  0.192978  0.278759   -0.139897
C17  C  0.644035  0.164186  0.324757   -0.080495
C18  C  0.724670  0.213684  0.171600    0.025221
C19  C  0.724545  0.212704  0.085845    0.029827
C20  C  0.692305  0.183065  0.040948   -0.132773
C21  C  0.906027  0.509925  0.369382    0.637286
C22  C  0.875392  0.511430  0.320428   -0.050131
C23  C  0.886072  0.540718  0.261676   -0.080131
C24  C  0.857527  0.540746  0.212475   -0.139282
C25  C  0.818078  0.511633  0.221843    0.085806
C26  C  0.807620  0.482768  0.281865   -0.139661
C27  C  0.836099  0.482514  0.330810   -0.081635
C28  C  0.787074  0.511656  0.172539    0.024081
C29  C  0.787865  0.512236  0.086755    0.029457
C30  C  0.817536  0.509771  0.041639   -0.131759
C31  C  0.508069  0.600097  0.357534    0.629978
C32  C  0.509615  0.632953  0.310740   -0.051016
C33  C  0.539340  0.652932  0.253424   -0.092621
C34  C  0.540150  0.683043  0.208336   -0.136619
C35  C  0.511160  0.693396  0.219874    0.085411
C36  C  0.482004  0.673824  0.278811   -0.138546
C37  C  0.481131  0.643684  0.323954   -0.082057
C38  C  0.511141  0.724754  0.171876    0.025996
C39  C  0.511607  0.724480  0.086080    0.031830
C40  C  0.508915  0.692203  0.041170   -0.133995
C41  C  0.394966  0.907657  0.368569    0.629563
C42  C  0.363273  0.876484  0.319142   -0.056183
C43  C  0.344158  0.886245  0.259756   -0.090770
C44  C  0.315875  0.857158  0.210969   -0.138164
C45  C  0.306266  0.817947  0.221222    0.087019
C46  C  0.325217  0.808371  0.281646   -0.139595
C47  C  0.353624  0.837429  0.330246   -0.080822
C48  C  0.275488  0.786524  0.172156    0.023697
C49  C  0.275763  0.787442  0.086347    0.029960
C50  C  0.307848  0.817247  0.041312   -0.133545
C51  C  0.092975  0.491730  0.361290    0.629711
C52  C  0.124120  0.490522  0.313213   -0.053323
C53  C  0.114103  0.460892  0.255499   -0.093595
C54  C  0.143199  0.460122  0.209585   -0.135850
C55  C  0.182600  0.489053  0.220704    0.086151
C56  C  0.192434  0.518228  0.279727   -0.137986
C57  C  0.163373  0.519043  0.325758   -0.081086
C58  C  0.213813  0.488917  0.172402    0.022516
C59  C  0.212818  0.488245  0.086617    0.032736
C60  C  0.183137  0.490846  0.041846   -0.133166
C61  C  0.399910  0.492018  0.641992    0.630276
C62  C  0.366987  0.490400  0.688696   -0.054301
C63  C  0.347015  0.460639  0.745949   -0.091284
C64  C  0.316837  0.459738  0.790946   -0.137721
C65  C  0.306383  0.488653  0.779393    0.085909
C66  C  0.325959  0.517860  0.720554   -0.139577
C67  C  0.356179  0.518831  0.675500   -0.080705
C68  C  0.274970  0.488516  0.827517    0.024184
C69  C  0.275443  0.488106  0.913343    0.029871
C70  C  0.307844  0.490952  0.958096   -0.132268
C71  C  0.093472  0.600869  0.637498    0.627827
C72  C  0.124712  0.633072  0.685843   -0.047045
C73  C  0.114556  0.652561  0.743568   -0.092168
C74  C  0.143470  0.682280  0.790038   -0.136459
C75  C  0.182905  0.692797  0.779422    0.084402
C76  C  0.192912  0.673562  0.720464   -0.138843
C77  C  0.163994  0.643784  0.673912   -0.085120
C78  C  0.213974  0.724295  0.827761    0.024602
C79  C  0.213023  0.724245  0.913548    0.030054
C80  C  0.183334  0.692094  0.958543   -0.131591
C81  C  0.512800  0.907718  0.631128    0.629992
C82  C  0.513391  0.876529  0.680367   -0.055163
C83  C  0.542256  0.886258  0.739764   -0.091139
C84  C  0.541403  0.857150  0.788571   -0.137929
C85  C  0.511759  0.817956  0.778306    0.086428
C86  C  0.483284  0.808409  0.717776   -0.139157
C87  C  0.483989  0.837484  0.669166   -0.081577
C88  C  0.510971  0.786489  0.827444    0.024009
C89  C  0.511620  0.787418  0.913248    0.030465
C90  C  0.509359  0.817236  0.958261   -0.133374
C91  C  0.605119  0.510988  0.630290    0.638051
C92  C  0.636665  0.511758  0.680143   -0.051619
C93  C  0.655378  0.540892  0.739177   -0.079733
C94  C  0.683617  0.540458  0.788700   -0.140404
C95  C  0.693506  0.511011  0.779420    0.087860
C96  C  0.674904  0.482221  0.719324   -0.140875
C97  C  0.646525  0.482456  0.670008   -0.080180
C98  C  0.724390  0.510747  0.828694    0.024266
C99  C  0.724444  0.511774  0.914438    0.030471
C100  C  0.692456  0.509611  0.959578   -0.134485
C101  C  0.907526  0.396009  0.634544    0.640182
C102  C  0.876702  0.363653  0.682608   -0.052127
C103  C  0.886782  0.344562  0.741377   -0.081040
C104  C  0.857692  0.315658  0.789105   -0.140127
C105  C  0.818385  0.305641  0.778456    0.088120
C106  C  0.808550  0.324510  0.718364   -0.139892
C107  C  0.837537  0.353450  0.670704   -0.079163
C108  C  0.787010  0.274814  0.827343    0.022458
C109  C  0.787819  0.275282  0.913123    0.032333
C110  C  0.817463  0.307562  0.958018   -0.135258
C111  C  0.493606  0.093976  0.640364    0.637776
C112  C  0.491734  0.124891  0.687396   -0.048292
C113  C  0.461822  0.114369  0.744585   -0.081914
C114  C  0.460437  0.143215  0.790144   -0.139176
C115  C  0.489025  0.182745  0.779215    0.086954
C116  C  0.518412  0.193054  0.720491   -0.140309
C117  C  0.519854  0.164270  0.674718   -0.081442
C118  C  0.488439  0.213689  0.827569    0.023763
C119  C  0.487787  0.212732  0.913331    0.031930
C120  C  0.490519  0.183109  0.957984   -0.134474
C121  C  0.508611  0.601477  0.637180    0.629433
C122  C  0.509396  0.633444  0.686007   -0.053639
C123  C  0.538823  0.652941  0.744155   -0.092724
C124  C  0.539299  0.682539  0.790537   -0.136565
C125  C  0.510300  0.692919  0.779442    0.086687
C126  C  0.481257  0.673620  0.720148   -0.138640
C127  C  0.480709  0.643980  0.673701   -0.080654
C128  C  0.510443  0.724327  0.827632    0.022991
C129  C  0.511237  0.724248  0.913416    0.031152
C130  C  0.508712  0.692081  0.958470   -0.133096
C131  C  0.396855  0.906800  0.633612    0.628716
C132  C  0.364385  0.875727  0.681595   -0.054711
C133  C  0.345265  0.885859  0.740252   -0.091165
C134  C  0.316490  0.856999  0.788577   -0.137843
C135  C  0.306459  0.817664  0.778576    0.087343
C136  C  0.325256  0.807686  0.718533   -0.139191
C137  C  0.354138  0.836515  0.670373   -0.081089
C138  C  0.275568  0.786442  0.827699    0.023865
C139  C  0.275798  0.787421  0.913497    0.029913
C140  C  0.307857  0.817247  0.958545   -0.134016
C141  C  0.091185  0.490538  0.641918    0.628862
C142  C  0.122314  0.489094  0.689480   -0.055688
C143  C  0.112659  0.459606  0.747326   -0.093004
C144  C  0.142079  0.459048  0.792512   -0.135828
C145  C  0.181405  0.487994  0.780458    0.086479
C146  C  0.190849  0.517004  0.721252   -0.136848
C147  C  0.161499  0.517656  0.676082   -0.081251
C148  C  0.212952  0.488171  0.828105    0.023161
C149  C  0.212386  0.487864  0.913909    0.032191
C150  C  0.182924  0.490652  0.959135   -0.134751
C151  C  0.490200  0.396369  0.631942    0.639364
C152  C  0.488569  0.364122  0.680648   -0.050682
C153  C  0.459240  0.345491  0.739308   -0.080456
C154  C  0.459121  0.316820  0.788315   -0.139956
C155  C  0.488200  0.306446  0.778804    0.087561
C156  C  0.517104  0.324878  0.718869   -0.139820
C157  C  0.517428  0.353688  0.670104   -0.081369
C158  C  0.488180  0.275404  0.827960    0.022525
C159  C  0.487568  0.275610  0.913745    0.030462
C160  C  0.490096  0.307756  0.958974   -0.134076
C161  C  0.601195  0.093520  0.637544    0.639268
C162  C  0.633267  0.124319  0.686308   -0.049883
C163  C  0.652530  0.113861  0.743939   -0.080922
C164  C  0.682428  0.142740  0.790152   -0.140103
C165  C  0.693217  0.182247  0.779361    0.086269
C166  C  0.674077  0.192458  0.720602   -0.139931
C167  C  0.644161  0.163647  0.674266   -0.080269
C168  C  0.724815  0.213295  0.827500    0.025759
C169  C  0.724632  0.212512  0.913272    0.029756
C170  C  0.692342  0.182989  0.958249   -0.134284
C171  C  0.904488  0.509185  0.628283    0.636259
C172  C  0.873800  0.510184  0.678128   -0.051314
C173  C  0.884666  0.539566  0.736756   -0.078205
C174  C  0.856363  0.539503  0.786871   -0.139872
C175  C  0.816911  0.510230  0.778459    0.085529
C176  C  0.806249  0.481232  0.718632   -0.140283
C177  C  0.834531  0.481038  0.668861   -0.081916
C178  C  0.786124  0.510411  0.828278    0.023372
C179  C  0.787381  0.511591  0.914033    0.032514
C180  C  0.817307  0.509463  0.958878   -0.135706
C181  C  0.604002  0.509995  0.367927    0.637585
C182  C  0.636418  0.511661  0.319685   -0.050024
C183  C  0.655253  0.541009  0.261130   -0.080483
C184  C  0.684041  0.541104  0.212525   -0.139811
C185  C  0.694335  0.511969  0.222199    0.086219
C186  C  0.675782  0.483115  0.282183   -0.139953
C187  C  0.646861  0.482821  0.330576   -0.080843
C188  C  0.725267  0.511830  0.172845    0.024266
C189  C  0.724893  0.512342  0.087070    0.031495
C190  C  0.692660  0.509864  0.042321   -0.134352
C191  C  0.906006  0.395166  0.368831    0.638172
C192  C  0.875224  0.363487  0.319329   -0.052073
C193  C  0.885689  0.344714  0.260546   -0.079560
C194  C  0.857011  0.316308  0.211345   -0.140035
C195  C  0.817675  0.306365  0.220755    0.087186
C196  C  0.807437  0.325029  0.280593   -0.140824
C197  C  0.836062  0.353573  0.329610   -0.081240
C198  C  0.786593  0.275427  0.171555    0.023112
C199  C  0.787606  0.275593  0.085804    0.029879
C200  C  0.817347  0.307721  0.040775   -0.134058
C201  C  0.492204  0.093480  0.362221    0.639369
C202  C  0.491054  0.124281  0.313226   -0.049631
C203  C  0.461432  0.113859  0.255365   -0.080403
C204  C  0.460546  0.142751  0.208928   -0.140251
C205  C  0.489308  0.182246  0.219716    0.088277
C206  C  0.518565  0.192411  0.278688   -0.139823
C207  C  0.519535  0.163598  0.325245   -0.081498
C208  C  0.488901  0.213383  0.171644    0.023190
C209  C  0.488010  0.212583  0.085885    0.030385
C210  C  0.490582  0.183014  0.040673   -0.133005
C211  C  0.398713  0.491345  0.362468    0.629584
C212  C  0.366732  0.490442  0.313547   -0.053775
C213  C  0.347327  0.460974  0.255441   -0.091874
C214  C  0.317706  0.460386  0.208954   -0.137034
C215  C  0.307214  0.489302  0.220009    0.086860
C216  C  0.326444  0.518405  0.279224   -0.139777
C217  C  0.356114  0.519072  0.325739   -0.080669
C218  C  0.275752  0.489072  0.171924    0.024123
C219  C  0.275834  0.488377  0.086124    0.030893
C220  C  0.308017  0.491060  0.040823   -0.134337
C221  C  0.091954  0.600440  0.359013    0.629503
C222  C  0.123272  0.633103  0.311744   -0.052787
C223  C  0.113587  0.653019  0.254149   -0.091490
C224  C  0.142908  0.682921  0.208653   -0.136903
C225  C  0.182246  0.693212  0.220115    0.086957
C226  C  0.191762  0.673674  0.279271   -0.139782
C227  C  0.162476  0.643709  0.324738   -0.081212
C228  C  0.213663  0.724555  0.172062    0.022968
C229  C  0.212876  0.724372  0.086250    0.032560
C230  C  0.183246  0.692168  0.041247   -0.133945
C231  C  0.509924  0.906858  0.366018    0.628064
C232  C  0.511299  0.875800  0.317887   -0.054763
C233  C  0.540545  0.885961  0.259201   -0.090844
C234  C  0.540503  0.857114  0.210900   -0.137854
C235  C  0.511260  0.817762  0.220951    0.086572
C236  C  0.482461  0.807755  0.280945   -0.138696
C237  C  0.482365  0.836577  0.329082   -0.081368
C238  C  0.511082  0.786584  0.171907    0.022649
C239  C  0.511697  0.787490  0.086100    0.032614
C240  C  0.509346  0.817247  0.041030   -0.134294
C241  C  0.487292  0.243793  0.043112    0.006712
C242  C  0.489905  0.244738  0.212758   -0.186699
C243  C  0.756407  0.243799  0.042744    0.007909
C244  C  0.755130  0.245043  0.212414   -0.187154
C245  C  0.756551  0.512707  0.043807    0.006422
C246  C  0.755752  0.510848  0.213447   -0.186332
C247  C  0.512126  0.756220  0.042954    0.006887
C248  C  0.510214  0.755198  0.212763   -0.187170
C249  C  0.244082  0.756162  0.043167    0.006977
C250  C  0.245044  0.755021  0.212951   -0.186003
C251  C  0.243940  0.487655  0.043257    0.007047
C252  C  0.245275  0.489881  0.213056   -0.185775
C253  C  0.243738  0.487496  0.956764    0.007613
C254  C  0.244292  0.489139  0.786857   -0.186521
C255  C  0.244116  0.756131  0.956651    0.009772
C256  C  0.245251  0.754855  0.786908   -0.186576
C257  C  0.512002  0.756136  0.956448    0.008047
C258  C  0.509705  0.754877  0.786710   -0.185763
C259  C  0.756316  0.512395  0.957313    0.006519
C260  C  0.754632  0.509434  0.787786   -0.186861
C261  C  0.756481  0.243674  0.956284    0.006030
C262  C  0.755454  0.244463  0.786559   -0.187434
C263  C  0.487131  0.243842  0.956637    0.006747
C264  C  0.489186  0.245010  0.786931   -0.186842
H1  H  0.436539  0.352646  0.256135    0.114745
H2  H  0.436443  0.300799  0.167249    0.105246
H3  H  0.540445  0.316944  0.287901    0.101724
H4  H  0.540051  0.368600  0.376643    0.113582
H5  H  0.493370  0.333060  0.074773    0.106253
H6  H  0.493321  0.493764  0.255394    0.404318
H7  H  0.600868  0.624497  0.399334    0.393393
H8  H  0.643065  0.083450  0.247405    0.115237
H9  H  0.698016  0.135569  0.164790    0.105004
H10  H  0.682750  0.223764  0.286425    0.101864
H11  H  0.628435  0.171361  0.369974    0.113344
H12  H  0.666879  0.160843  0.073733    0.107719
H13  H  0.377152  0.979569  0.404057    0.380344
H14  H  0.916871  0.562955  0.255649    0.114289
H15  H  0.865318  0.563609  0.167057    0.105179
H16  H  0.776915  0.460180  0.288328    0.101640
H17  H  0.828748  0.460011  0.376764    0.113870
H18  H  0.840047  0.507036  0.074422    0.106106
H19  H  0.022183  0.397568  0.396147    0.375424
H20  H  0.561457  0.644349  0.245005    0.108972
H21  H  0.563357  0.699078  0.164082    0.107635
H22  H  0.459567  0.682029  0.287189    0.101622
H23  H  0.458451  0.627651  0.369105    0.114379
H24  H  0.505958  0.666891  0.074006    0.106654
H25  H  0.531523  0.550570  0.230083    0.379716
H26  H  0.351824  0.916776  0.252916    0.109436
H27  H  0.300451  0.864367  0.165277    0.108679
H28  H  0.317784  0.777885  0.288795    0.101588
H29  H  0.369117  0.830760  0.376646    0.114390
H30  H  0.333112  0.839706  0.074143    0.104379
H31  H  0.446058  0.976529  0.230116    0.393844
H32  H  0.602099  0.999543  0.483862    0.404040
H33  H  0.083382  0.438704  0.247713    0.109999
H34  H  0.135822  0.436920  0.165193    0.107821
H35  H  0.223106  0.540677  0.287596    0.101513
H36  H  0.170222  0.541679  0.371141    0.113932
H37  H  0.160959  0.494075  0.074755    0.105978
H38  H  0.026133  0.473279  0.239028    0.397660
H39  H  0.999956  0.603651  0.488932    0.407839
H40  H  0.355654  0.438565  0.754391    0.109439
H41  H  0.300825  0.436517  0.835186    0.107862
H42  H  0.317707  0.540265  0.712183    0.102128
H43  H  0.372214  0.541554  0.630426    0.114259
H44  H  0.333211  0.494100  0.925152    0.107090
H45  H  0.449420  0.468621  0.769529    0.380154
H46  H  0.083802  0.643989  0.750813    0.110174
H47  H  0.135927  0.697990  0.834388    0.107648
H48  H  0.223623  0.681845  0.712957    0.100955
H49  H  0.171032  0.628153  0.628498    0.113320
H50  H  0.161007  0.666736  0.925775    0.104641
H51  H  0.019534  0.555309  0.764181    0.380045
H52  H  0.999348  0.395455  0.510208    0.407892
H53  H  0.565132  0.916785  0.746638    0.109535
H54  H  0.564016  0.864341  0.834307    0.108044
H55  H  0.460210  0.777934  0.710593    0.101886
H56  H  0.461852  0.830848  0.622727    0.114482
H57  H  0.506550  0.839683  0.925388    0.104527
H58  H  0.530380  0.976619  0.769994    0.393629
H59  H  0.397334  0.999442  0.515976    0.404161
H60  H  0.647254  0.563460  0.744959    0.114555
H61  H  0.698823  0.563255  0.834192    0.105473
H62  H  0.682633  0.459344  0.713009    0.101831
H63  H  0.631293  0.460070  0.623879    0.113564
H64  H  0.667092  0.506626  0.926858    0.106787
H65  H  0.506233  0.506873  0.744296    0.404077
H66  H  0.375556  0.399146  0.600190    0.393493
H67  H  0.917479  0.352924  0.748628    0.112808
H68  H  0.864926  0.300151  0.834549    0.105225
H69  H  0.777965  0.316674  0.710968    0.102750
H70  H  0.830757  0.369029  0.624720    0.114779
H71  H  0.839814  0.332871  0.925109    0.106933
H72  H  0.000683  0.499695  0.744464    0.404111
H73  H  0.022727  0.624099  0.602540    0.373292
H74  H  0.440154  0.083476  0.752097    0.115153
H75  H  0.437097  0.135577  0.834316    0.105230
H76  H  0.540532  0.223855  0.712796    0.102258
H77  H  0.542694  0.171481  0.629635    0.113424
H78  H  0.493664  0.160905  0.924992    0.107652
H79  H  0.602427  0.979734  0.596085    0.379684
H80  H  0.561146  0.644579  0.751780    0.109906
H81  H  0.562398  0.698295  0.835163    0.108212
H82  H  0.458745  0.681756  0.712254    0.101614
H83  H  0.458200  0.628299  0.628018    0.113610
H84  H  0.505581  0.666661  0.925789    0.106073
H85  H  0.527823  0.554469  0.757754    0.397514
H86  H  0.396050  0.395992  0.516304    0.408804
H87  H  0.353502  0.916541  0.747202    0.109675
H88  H  0.301128  0.864507  0.833849    0.108385
H89  H  0.317382  0.777067  0.711525    0.101565
H90  H  0.369587  0.829533  0.624432    0.113906
H91  H  0.333121  0.839719  0.925733    0.104825
H92  H  0.447044  0.979203  0.773316    0.376333
H93  H  0.081996  0.437425  0.755992    0.108664
H94  H  0.135017  0.436032  0.837183    0.108141
H95  H  0.221455  0.539485  0.712670    0.102455
H96  H  0.168022  0.540199  0.630675    0.116022
H97  H  0.160578  0.493734  0.926560    0.106396
H98  H  0.026093  0.477241  0.764841    0.397202
H99  H  0.437066  0.354133  0.745382    0.114150
H100  H  0.436235  0.301722  0.833686    0.105050
H101  H  0.539671  0.316732  0.712376    0.101686
H102  H  0.539948  0.368893  0.624216    0.114037
H103  H  0.493025  0.333116  0.926315    0.106767
H104  H  0.604834  0.624809  0.600481    0.378337
H105  H  0.643611  0.083019  0.751064    0.114777
H106  H  0.698107  0.135165  0.834519    0.105093
H107  H  0.682542  0.223212  0.713113    0.101835
H108  H  0.628558  0.170778  0.628967    0.113571
H109  H  0.666947  0.160714  0.925487    0.108054
H110  H  0.507158  0.000009  0.748757    0.409063
H111  H  0.378624  0.973476  0.598529    0.398453
H112  H  0.915456  0.561964  0.741738    0.116032
H113  H  0.864354  0.562483  0.832114    0.105223
H114  H  0.775542  0.458534  0.712855    0.100961
H115  H  0.826997  0.458456  0.623003    0.112709
H116  H  0.839644  0.506495  0.925938    0.107232
H117  H  0.019578  0.394314  0.596730    0.397017
H118  H  0.646669  0.563215  0.254732    0.114239
H119  H  0.699259  0.563993  0.167218    0.105373
H120  H  0.683880  0.460525  0.288983    0.101425
H121  H  0.631552  0.460296  0.376407    0.113547
H122  H  0.667448  0.507067  0.075343    0.106826
H123  H  0.375459  0.395532  0.399348    0.377549
H124  H  0.916406  0.352945  0.254770    0.115104
H125  H  0.864594  0.301033  0.166010    0.105379
H126  H  0.776810  0.317231  0.286876    0.101989
H127  H  0.828931  0.368905  0.375542    0.115108
H128  H  0.839605  0.333145  0.073561    0.107137
H129  H  0.000652  0.495597  0.255764    0.404015
H130  H  0.022623  0.624628  0.404080    0.394476
H131  H  0.439459  0.083030  0.248256    0.114122
H132  H  0.437342  0.135188  0.164442    0.105190
H133  H  0.540879  0.223153  0.286186    0.101545
H134  H  0.542195  0.170731  0.370719    0.113852
H135  H  0.493763  0.160728  0.073236    0.107204
H136  H  0.492759  0.999905  0.251203    0.409027
H137  H  0.594855  0.973496  0.401542    0.398521
H138  H  0.355782  0.438713  0.247950    0.109331
H139  H  0.302010  0.437266  0.164334    0.108315
H140  H  0.318222  0.540861  0.286974    0.101985
H141  H  0.371756  0.541618  0.371371    0.113889
H142  H  0.333507  0.494268  0.073360    0.106469
H143  H  0.445718  0.472073  0.241859    0.397722
H144  H  0.604097  0.604118  0.483311    0.408551
H145  H  0.082917  0.644586  0.245891    0.109065
H146  H  0.135745  0.698883  0.164193    0.108103
H147  H  0.222379  0.681790  0.287648    0.101627
H148  H  0.169113  0.627749  0.370090    0.114124
H149  H  0.160844  0.666852  0.073995    0.106342
H150  H  0.019524  0.551758  0.233036    0.378741
H151  H  0.562964  0.916651  0.252229    0.109330
H152  H  0.563373  0.864633  0.165621    0.108474
H153  H  0.459747  0.777125  0.287989    0.101697
H154  H  0.459932  0.829576  0.375028    0.114071
H155  H  0.506511  0.839702  0.073810    0.104879
H156  H  0.532135  0.979387  0.226358    0.376398
H157  H  0.489882  0.244619  0.278924    0.106772
H158  H  0.755177  0.245025  0.278584    0.107026
H159  H  0.755946  0.511129  0.279606    0.106808
H160  H  0.510522  0.755362  0.278938    0.107352
H161  H  0.244901  0.755144  0.279123    0.106832
H162  H  0.245256  0.489660  0.279234    0.106621
H163  H  0.244006  0.488767  0.720675    0.106660
H164  H  0.245159  0.754916  0.720736    0.107393
H165  H  0.509942  0.754955  0.720538    0.106834
H166  H  0.754556  0.509408  0.721632    0.107349
H167  H  0.755551  0.244297  0.720387    0.106976
H168  H  0.489006  0.244997  0.720762    0.107094
H169  H  0.542697  0.599061  0.497499    0.405734
H170  H  0.530272  0.472091  0.672132    0.432661
H171  H  0.528224  0.469897  0.327746    0.432912
H172  H  0.401090  0.457429  0.502288    0.406245
H173  H  0.472821  0.943537  0.670011    0.403616
H174  H  0.470663  0.943567  0.329903    0.403640
H175  H  0.600669  0.058169  0.496958    0.434764
H176  H  0.457439  0.058179  0.502816    0.435092
H177  H  0.941837  0.470227  0.327961    0.432492
H178  H  0.941771  0.471325  0.672119    0.432705
H179  H  0.056366  0.456844  0.501036    0.408257
H180  H  0.056631  0.598590  0.499101    0.404235
Zr1  Zr  0.453625  0.451827  0.396383    2.384844
Zr2  Zr  0.543967  0.001375  0.386811    2.385279
Zr3  Zr  0.998676  0.543313  0.390392    2.380139
Zr4  Zr  0.544319  0.543098  0.387510    2.380474
Zr5  Zr  0.453167  0.000814  0.396146    2.379550
Zr6  Zr  0.998593  0.452255  0.393752    2.385983
Zr7  Zr  0.457023  0.455881  0.612169    2.380608
Zr8  Zr  0.998381  0.546199  0.607657    2.394340
Zr9  Zr  0.547604  0.000841  0.603747    2.379133
Zr10  Zr  0.548282  0.546615  0.603410    2.385444
Zr11  Zr  0.998803  0.455345  0.608424    2.367997
Zr12  Zr  0.457335  0.001370  0.613117    2.385213
Zr13  Zr  0.536972  0.463319  0.499935    2.348048
Zr14  Zr  0.536516  0.073153  0.499952    2.345389
Zr15  Zr  0.926446  0.462846  0.500187    2.346825
Zr16  Zr  0.464853  0.535275  0.499819    2.360141
Zr17  Zr  0.464541  0.929113  0.499939    2.362332
Zr18  Zr  0.070524  0.535035  0.499928    2.360337
